/*--------------------------------*- C++ -*----------------------------------*\
| =========                 |                                                 |
| \\      /  F ield         | OpenFOAM: The Open Source CFD Toolbox           |
|  \\    /   O peration     | Version:  2.0.x                                 |
|   \\  /    A nd           | Web:      www.OpenFOAM.org                      |
|    \\/     M anipulation  |                                                 |
\*---------------------------------------------------------------------------*/

FoamFile
{
    version     2.0;
    format      ascii;
    class       dictionary;
    object      turbineProperties;
}
// * * * * * * * * * * * * * * * * * * * * * * * * * * * * * * * * * * * * * //

NumBl                       3;
TipRad                     13.5;
HubRad                      0.5;
UndSling                    0.0;
OverHang                   -1.88;
NacelleLength               3.5; // Value from NREL Phase VI AMES - not the real one
NacelleFrontalArea          0.5; // Value from NREL Phase VI AMES - not the real one
NacelleCd                   0.5;
TowerHt                    31.0;
Twr2Shft                    1.05;  //VERSION 2 vs 1.5 VERSION 1
ShftTilt                   -4.05;
PreCone                   (0.0 0.0 0.0);
GBRatio                    27.5647;
GBEfficiency                1.0;
GenEfficiency               1.0;
RatedRotSpeed              12.1;  // A changer
GenIner                    50.0;
HubIner                    69.1;
BladeIner                  5369.5;  // no use here
//GenTorqueControllerType    "fiveRegion";
//GenTorqueControllerType  "speedTorqueTable";
GenTorqueControllerType  "none";
//BladePitchControllerType   "PID";
BladePitchControllerType "none";
NacYawControllerType       "none";
RotSpeedLimiter             false;
GenTorqueRateLimiter        true;
NacYawRateLimiter           true;
BladePitchRateLimiter       true;
SpeedFilterCornerFrequency  2.0;


GenTorqueControllerParams  // NREL data - no use here
{
    RateLimitGenTorque       15.0E3;
    SpeedTorqueTable
    (
        //      gen speed (RPM) gen torque (N-m)
        (       670.00              0.0 )
        (       871.00          20000.0 )
        (       1161.96         32000.0 )
        (       1173.70         43093.6 )
    );
    CutInGenSpeed           670.0;
    Region2StartGenSpeed    871.0;
    Region2EndGenSpeed     1161.963;
    CutInGenTorque            0.0;
    RatedGenTorque           43.09355E3;
    KGen                      2.55764E-2;
}

BladePitchControllerParams
{
    RateLimitBladePitch       8.000;
    PitchMin                  0.000;
    PitchMax                 90.000;
    PitchK                    6.302336;
    PitchControlKP            1.82620057;
    PitchControlKI            0.78265750;
    PitchControlKD            0.000;
}

NacYawControllerParams
{
    RateLimitNacYaw           2.0;
}

Airfoils
(
    "AD_1_cylinder"
    "AD_2_63-235_mod"
    "AD_3_63-224_mod"
    "AD_4_63-218_mod"
    "AD_5_63-214_mod"
);



BladeData
(
//  radius(m)   c(m)     twist(deg) airfoil
    ( 0.825     0.589    13.9573    0)
    ( 1.475     0.979    13.0025    1)
    ( 2.125     1.2728   12.0596    1)
    ( 2.775     1.2276   11.1288    1)
    ( 3.425     1.1823   10.2102    1)
    ( 4.075     1.1368    9.3046    2)
    ( 4.725     1.091     8.3928    2)
    ( 5.375     1.045     7.4834    2)
    ( 6.025     0.999     6.6249    2)
    ( 6.675     0.953     5.8527    2)
    ( 7.325     0.9072    5.1189    2)
    ( 7.975     0.8614    4.4182    2)
    ( 8.625     0.8155    3.7563    3)
    ( 9.275     0.7694    3.1393    3)
    ( 9.925     0.7231    2.5731    3)
    (10.575     0.6764    2.0579    3)
    (11.225     0.6295    1.5793    3)
    (11.875     0.5823    1.1394    3)
    (12.525     0.5348    0.7418    4)
    (13.175     0.4871    0.39      4)
);

