/*--------------------------------*- C++ -*----------------------------------*\
  =========                 |
  \\      /  F ield         | OpenFOAM: The Open Source CFD Toolbox
   \\    /   O peration     | Website:  https://openfoam.org
    \\  /    A nd           | Version:  6
     \\/     M anipulation  |
\*---------------------------------------------------------------------------*/

FoamFile
{
    version     2.0;
    format      ascii;
    class       dictionary;
    location    "system";
    object      topoSetDict.ground.1;
}

// * * * * * * * * * * * * * * * * * * * * * * * * * * * * * * * * * * * * * //

actions 
( 
    { 
        name         ground; 
        type         cellSet; 
        action       new; 
        source       rotatedBoxToCell; 
        sourceInfo 
        { 
            origin (  756.0  1122.0     0.0); 
            i      ( 2520.0     0.0     0.0); 
            j      (   -0.0   756.0     0.0); 
            k      (    0.0     0.0   252.0); 
        } 
    } 
); 
 
// ************************************************************************* // 
